sim: command line: ./sim-outorder -config ./myconfig/bpred_taken.cfg mytests/tests-bpreds 

sim: ** starting performance simulation **

sim: ** simulation statistics **
sim_num_insn                 418345 # total number of instructions committed
sim_num_refs                 145312 # total number of loads and stores committed
sim_num_loads                101213 # total number of loads committed
sim_num_stores           44099.0000 # total number of stores committed
sim_num_branches             101023 # total number of branches committed
sim_elapsed_time                  1 # total simulation time in seconds
sim_inst_rate           418345.0000 # simulation speed (in insts/sec)
sim_total_insn              1096497 # total number of instructions executed
sim_total_refs               413082 # total number of loads and stores executed
sim_total_loads              250311 # total number of loads executed
sim_total_stores        162771.0000 # total number of stores executed
sim_total_branches           181567 # total number of branches executed
sim_cycle                    740841 # total simulation time in cycles
sim_IPC                      0.5647 # instructions per cycle
sim_CPI                      1.7709 # cycles per instruction
sim_exec_BW                  1.4801 # total instructions (mis-spec + committed) per cycle
sim_IPB                      4.1411 # instruction per branch
bpred_taken.lookups          252123 # total number of bpred lookups
bpred_taken.updates          101023 # total number of updates
bpred_taken.addr_hits         20887 # total number of address-predicted hits
bpred_taken.dir_hits          20887 # total number of direction-predicted hits (includes addr-hits)
bpred_taken.misses            80136 # total number of misses
bpred_taken.jr_hits               0 # total number of address-predicted hits for JR's
bpred_taken.jr_seen           20066 # total number of JR's seen
bpred_taken.jr_non_ras_hits.PP            0 # total number of address-predicted hits for non-RAS JR's
bpred_taken.jr_non_ras_seen.PP        20066 # total number of non-RAS JR's seen
bpred_taken.bpred_addr_rate    0.2068 # branch address-prediction rate (i.e., addr-hits/updates)
bpred_taken.bpred_dir_rate    0.2068 # branch direction-prediction rate (i.e., all-hits/updates)
bpred_taken.bpred_jr_rate    0.0000 # JR address-prediction rate (i.e., JR addr-hits/JRs seen)
bpred_taken.bpred_jr_non_ras_rate.PP    0.0000 # non-RAS JR addr-pred rate (ie, non-RAS JR hits/JRs seen)
bpred_taken.retstack_pushes            0 # total number of address pushed onto ret-addr stack
bpred_taken.retstack_pops            0 # total number of address popped off of ret-addr stack
bpred_taken.used_ras.PP            0 # total number of RAS predictions used
bpred_taken.ras_hits.PP            0 # total number of RAS hits
bpred_taken.ras_rate.PP <error: divide by zero> # RAS prediction rate (i.e., RAS hits/used RAS)
