sim: command line: ./sim-outorder -config ./myconfig/bpred_comb.cfg mytests/tests-bpreds 

sim: ** starting performance simulation **

sim: ** simulation statistics **
sim_num_insn                 418345 # total number of instructions committed
sim_num_refs                 145312 # total number of loads and stores committed
sim_num_loads                101213 # total number of loads committed
sim_num_stores           44099.0000 # total number of stores committed
sim_num_branches             101023 # total number of branches committed
sim_elapsed_time                  1 # total simulation time in seconds
sim_inst_rate           418345.0000 # simulation speed (in insts/sec)
sim_total_insn               424797 # total number of instructions executed
sim_total_refs               146465 # total number of loads and stores executed
sim_total_loads              101970 # total number of loads executed
sim_total_stores         44495.0000 # total number of stores executed
sim_total_branches           102750 # total number of branches executed
sim_cycle                    308669 # total simulation time in cycles
sim_IPC                      1.3553 # instructions per cycle
sim_CPI                      0.7378 # cycles per instruction
sim_exec_BW                  1.3762 # total instructions (mis-spec + committed) per cycle
sim_IPB                      4.1411 # instruction per branch
bpred_comb.lookups           103426 # total number of bpred lookups
bpred_comb.updates           101023 # total number of updates
bpred_comb.addr_hits         100078 # total number of address-predicted hits
bpred_comb.dir_hits          100198 # total number of direction-predicted hits (includes addr-hits)
bpred_comb.used_bimod         50346 # total number of bimodal predictions used
bpred_comb.used_2lev          10183 # total number of 2-level predictions used
bpred_comb.misses               825 # total number of misses
bpred_comb.jr_hits            20057 # total number of address-predicted hits for JR's
bpred_comb.jr_seen            20066 # total number of JR's seen
bpred_comb.jr_non_ras_hits.PP            0 # total number of address-predicted hits for non-RAS JR's
bpred_comb.jr_non_ras_seen.PP            1 # total number of non-RAS JR's seen
bpred_comb.bpred_addr_rate    0.9906 # branch address-prediction rate (i.e., addr-hits/updates)
bpred_comb.bpred_dir_rate    0.9918 # branch direction-prediction rate (i.e., all-hits/updates)
bpred_comb.bpred_jr_rate    0.9996 # JR address-prediction rate (i.e., JR addr-hits/JRs seen)
bpred_comb.bpred_jr_non_ras_rate.PP    0.0000 # non-RAS JR addr-pred rate (ie, non-RAS JR hits/JRs seen)
bpred_comb.retstack_pushes        20089 # total number of address pushed onto ret-addr stack
bpred_comb.retstack_pops        21037 # total number of address popped off of ret-addr stack
bpred_comb.used_ras.PP        20065 # total number of RAS predictions used
