sim: command line: ./sim-outorder -config ./myconfig/bpred_bimod.cfg mytests/tests-bpreds 

sim: ** starting performance simulation **

sim: ** simulation statistics **
sim_num_insn                 418345 # total number of instructions committed
sim_num_refs                 145312 # total number of loads and stores committed
sim_num_loads                101213 # total number of loads committed
sim_num_stores           44099.0000 # total number of stores committed
sim_num_branches             101023 # total number of branches committed
sim_elapsed_time                  1 # total simulation time in seconds
sim_inst_rate           418345.0000 # simulation speed (in insts/sec)
sim_total_insn               424774 # total number of instructions executed
sim_total_refs               146478 # total number of loads and stores executed
sim_total_loads              101985 # total number of loads executed
sim_total_stores         44493.0000 # total number of stores executed
sim_total_branches           102771 # total number of branches executed
sim_cycle                    308687 # total simulation time in cycles
sim_IPC                      1.3552 # instructions per cycle
sim_CPI                      0.7379 # cycles per instruction
sim_exec_BW                  1.3761 # total instructions (mis-spec + committed) per cycle
sim_IPB                      4.1411 # instruction per branch
bpred_bimod.lookups          103444 # total number of bpred lookups
bpred_bimod.updates          101023 # total number of updates
bpred_bimod.addr_hits        100075 # total number of address-predicted hits
bpred_bimod.dir_hits         100223 # total number of direction-predicted hits (includes addr-hits)
bpred_bimod.misses              800 # total number of misses
bpred_bimod.jr_hits           20057 # total number of address-predicted hits for JR's
bpred_bimod.jr_seen           20066 # total number of JR's seen
bpred_bimod.jr_non_ras_hits.PP            0 # total number of address-predicted hits for non-RAS JR's
bpred_bimod.jr_non_ras_seen.PP            1 # total number of non-RAS JR's seen
bpred_bimod.bpred_addr_rate    0.9906 # branch address-prediction rate (i.e., addr-hits/updates)
bpred_bimod.bpred_dir_rate    0.9921 # branch direction-prediction rate (i.e., all-hits/updates)
bpred_bimod.bpred_jr_rate    0.9996 # JR address-prediction rate (i.e., JR addr-hits/JRs seen)
bpred_bimod.bpred_jr_non_ras_rate.PP    0.0000 # non-RAS JR addr-pred rate (ie, non-RAS JR hits/JRs seen)
bpred_bimod.retstack_pushes        20093 # total number of address pushed onto ret-addr stack
bpred_bimod.retstack_pops        21036 # total number of address popped off of ret-addr stack
bpred_bimod.used_ras.PP        20065 # total number of RAS predictions used
bpred_bimod.ras_hits.PP        20057 # total number of RAS hits
bpred_bimod.ras_rate.PP    0.9996 # RAS prediction rate (i.e., RAS hits/used RAS)
