sim: command line: ./sim-outorder -config ./myconfig/bpred_2lev-PAp-concat.cfg mytests/tests-bpreds 

sim: ** starting performance simulation **

sim: ** simulation statistics **
sim_num_insn                 418345 # total number of instructions committed
sim_num_refs                 145312 # total number of loads and stores committed
sim_num_loads                101213 # total number of loads committed
sim_num_stores           44099.0000 # total number of stores committed
sim_num_branches             101023 # total number of branches committed
sim_elapsed_time                  1 # total simulation time in seconds
sim_inst_rate           418345.0000 # simulation speed (in insts/sec)
sim_total_insn               424854 # total number of instructions executed
sim_total_refs               146509 # total number of loads and stores executed
sim_total_loads              102005 # total number of loads executed
sim_total_stores         44504.0000 # total number of stores executed
sim_total_branches           102776 # total number of branches executed
sim_cycle                    308755 # total simulation time in cycles
sim_IPC                      1.3549 # instructions per cycle
sim_CPI                      0.7380 # cycles per instruction
sim_exec_BW                  1.3760 # total instructions (mis-spec + committed) per cycle
sim_IPB                      4.1411 # instruction per branch
bpred_2lev.lookups           103457 # total number of bpred lookups
bpred_2lev.updates           101023 # total number of updates
bpred_2lev.addr_hits         100048 # total number of address-predicted hits
bpred_2lev.dir_hits          100186 # total number of direction-predicted hits (includes addr-hits)
bpred_2lev.misses               837 # total number of misses
bpred_2lev.jr_hits            20053 # total number of address-predicted hits for JR's
bpred_2lev.jr_seen            20066 # total number of JR's seen
bpred_2lev.jr_non_ras_hits.PP            0 # total number of address-predicted hits for non-RAS JR's
bpred_2lev.jr_non_ras_seen.PP            1 # total number of non-RAS JR's seen
bpred_2lev.bpred_addr_rate    0.9903 # branch address-prediction rate (i.e., addr-hits/updates)
bpred_2lev.bpred_dir_rate    0.9917 # branch direction-prediction rate (i.e., all-hits/updates)
bpred_2lev.bpred_jr_rate    0.9994 # JR address-prediction rate (i.e., JR addr-hits/JRs seen)
bpred_2lev.bpred_jr_non_ras_rate.PP    0.0000 # non-RAS JR addr-pred rate (ie, non-RAS JR hits/JRs seen)
bpred_2lev.retstack_pushes        20087 # total number of address pushed onto ret-addr stack
bpred_2lev.retstack_pops        21040 # total number of address popped off of ret-addr stack
bpred_2lev.used_ras.PP        20065 # total number of RAS predictions used
bpred_2lev.ras_hits.PP        20053 # total number of RAS hits
bpred_2lev.ras_rate.PP    0.9994 # RAS prediction rate (i.e., RAS hits/used RAS)
